Version 4
SHEET 1 880 680
WIRE -336 -144 -336 -208
WIRE 304 -144 256 -144
WIRE 432 -144 384 -144
WIRE -336 -32 -336 -64
WIRE -336 -32 -400 -32
WIRE -336 16 -336 -32
WIRE -80 32 -112 32
WIRE -32 32 -80 32
WIRE 96 32 48 32
WIRE 256 32 256 -144
WIRE 256 32 160 32
WIRE 304 32 256 32
WIRE 432 48 432 -144
WIRE 432 48 368 48
WIRE 480 48 432 48
WIRE 304 64 256 64
WIRE 256 96 256 64
WIRE -112 160 -112 32
WIRE -336 176 -336 96
WIRE -112 288 -112 240
FLAG 480 48 Vout
FLAG 256 96 0
FLAG -80 32 Vin
FLAG -400 -32 0
FLAG -336 -208 Vcc
FLAG -336 176 -Vcc
FLAG 336 16 Vcc
FLAG 336 80 -Vcc
FLAG -112 288 0
SYMBOL res 64 16 R90
WINDOW 0 0 56 VBottom 2
WINDOW 3 32 56 VTop 2
SYMATTR InstName R1
SYMATTR Value {R1}
SYMBOL cap 96 48 R270
WINDOW 0 32 32 VTop 2
WINDOW 3 0 32 VBottom 2
SYMATTR InstName C1
SYMATTR Value {C1}
SYMBOL OpAmps\\OP07 336 -16 R0
SYMATTR InstName U1
SYMBOL voltage -336 -160 R0
WINDOW 123 0 0 Left 0
WINDOW 39 0 0 Left 0
SYMATTR InstName V1
SYMATTR Value 15
SYMBOL voltage -336 0 R0
WINDOW 123 0 0 Left 0
WINDOW 39 0 0 Left 0
SYMATTR InstName V2
SYMATTR Value 15
SYMBOL voltage -112 144 R0
WINDOW 123 32 121 Left 2
WINDOW 39 0 0 Left 0
SYMATTR Value2 AC 5
SYMATTR InstName V3
SYMATTR Value PWL file=sig_in.csv
SYMBOL res 400 -160 R90
WINDOW 0 0 56 VBottom 2
WINDOW 3 32 56 VTop 2
SYMATTR InstName R2
SYMATTR Value {R2}
TEXT 56 440 Left 2 !.tran 0 {transtop} 0 {timestep} startup
TEXT 56 520 Left 2 !.include param.txt
TEXT 56 480 Left 2 !.include trancmd.txt
TEXT 264 568 Left 2 ;do not edit this by hand
RECTANGLE Normal 560 608 16 384 2
